/*--------------------------------*- C++ -*----------------------------------*\
| =========                 |                                                 |
| \\      /  F ield         | OpenFOAM: The Open Source CFD Toolbox           |
|  \\    /   O peration     | Version:  1.5                                   |
|   \\  /    A nd           | Web:      http://www.OpenFOAM.org               |
|    \\/     M anipulation  |                                                 |
\*---------------------------------------------------------------------------*/
FoamFile
{
    version     2.0;
    format      ascii;
    class       dictionary;
    object      environmentalProperties;
}
// * * * * * * * * * * * * * * * * * * * * * * * * * * * * * * * * * * * * * //

seaLevel	0.5;
seaLevelAsReference false;

// A list of the relaxation zones in the simulation. The parameters are given
// in <name>Coeffs below.
relaxationNames (inlet outlet);

initializationName outlet;

inletCoeffs
{
    waveType    stokesFirst;  
    Tsoft       2;
    depth       0.500000;
    direction   (1.0 0 0);
    phi         0.000000;
    height      0.2;
    omega       3.1415;
    waveNumber (1.7 0. 0.);

    relaxationZone
    {
        relaxationScheme Spatial;
        relaxationShape  Rectangular;
        beachType        Empty;
    
        relaxType   INLET;
        startX      (-5. -1. 0.);
        endX        (-2.5 1.6  0.);
        orientation      (1.0 0.0 0.0);
    }
    
};

outletCoeffs
{
    waveType    potentialCurrent;
    U           (0 0 0);
    Tsoft       2;

    relaxationZone
    {
        relaxationScheme Spatial;
        relaxationShape  Rectangular;
        beachType        Empty;    

        relaxType   OUTLET;
        startX      (3. -1. 0.);
        endX        (5. 1.6  0.);
        orientation      (1.0 0.0 0.0);
    }
};



// ************************************************************************* //
