/*--------------------------------*- C++ -*----------------------------------*\
| =========                 |                                                 |
| \\      /  F ield         | OpenFOAM: The Open Source CFD Toolbox           |
|  \\    /   O peration     | Version:  v1706                                 |
|   \\  /    A nd           | Web:      www.OpenFOAM.com                      |
|    \\/     M anipulation  |                                                 |
\*---------------------------------------------------------------------------*/
FoamFile
{
    version	2.0;
    format	ascii;
    class	dictionary;
    object	waveProperties;
}
// * * * * * * * * * * * * * * * * * * * * * * * * * * * * * * * * * * * * * //

seaLevel            5;

seaLevelAsReference false;

relaxationNames     (inlet outlet);

initializationName  inlet;

inletCoeffs
{
    waveType            solitaryFirst;
    height              2;
    depth               5;
    direction           ( 1 0 0 );
    x0                  ( 0.0 0 0 );

        relaxationZone
    {
        relaxationScheme Spatial;
        relaxationShape  Rectangular;
        beachType        Empty;
    
        relaxType   INLET;
        startX      (0.  -0. 0.);
        endX        (20.0 0.1  0.);
        orientation      (1.0 0.0 0.0);
    }
}

outletCoeffs
{

    waveType    potentialCurrent;
    U           (0 0 0);
    Tsoft       2;

    relaxationZone
    {
        relaxationScheme Spatial;
        relaxationShape  Rectangular;
        beachType        Empty;
    
        relaxType   OUTLET;
        startX      (70.0  -0. 0.);
        endX        (100.0 0.1  0.);
        orientation      (1.0 0.0 0.0);
    }
}



// ************************************************************************* //
