/*--------------------------------*- C++ -*----------------------------------*\
| =========                 |                                                 |
| \\      /  F ield         | OpenFOAM Extend Project: Open Source CFD        |
|  \\    /   O peration     | Version:  1.6-ext                               |
|   \\  /    A nd           | Web:      www.extend-project.de                 |
|    \\/     M anipulation  |                                                 |
\*---------------------------------------------------------------------------*/
FoamFile
{
    version     2.0;
    format      ascii;
    class       dictionary;
    object      blockMeshDict;
}
// * * * * * * * * * * * * * * * * * * * * * * * * * * * * * * * * * * * * * //

convertToMeters 1;

vertices
(
    (0.0     0.0     -2.0)
    (10   0.0     -2.0)
    (10   0.1     -2.0)
    (0.0     0.1     -2.0)
    (0.0     0.0     0.0)
    (10   0.0     0.0)
    (10   0.1     0.0)
    (0.0     0.1     0.0)
);

blocks
(
    hex (0 1 2 3 4 5 6 7) (150 1 100) simpleGrading 
        (
          1 
          1
          (
             (0.7 0.7 4)
             (0.2 0.2 1)
             (0.1 0.1 0.25)

          ) 
        )
);

edges
(
);

patches
(
    patch inlet
    (
        (0 4 7 3)
    )
    patch outlet
    (
        (1 5 6 2)
    )
    wall bottom
    (
        (0 1 2 3)
    )
    patch atmosphere
    (
        (4 5 6 7)
    )
    empty frontAndBack
    (
        (0 1 5 4)
        (3 2 6 7)
    )

);

mergePatchPairs
(
);

// ************************************************************************* //
