/*--------------------------------*- C++ -*----------------------------------*\
| =========                 |                                                 |
| \\      /  F ield         | OpenFOAM: The Open Source CFD Toolbox           |
|  \\    /   O peration     | Version:  v1706                                 |
|   \\  /    A nd           | Web:      www.OpenFOAM.com                      |
|    \\/     M anipulation  |                                                 |
\*---------------------------------------------------------------------------*/
FoamFile
{
    version	2.0;
    format	ascii;
    class	dictionary;
    object	waveProperties;
}
// * * * * * * * * * * * * * * * * * * * * * * * * * * * * * * * * * * * * * //

seaLevel            1.5;

seaLevelAsReference false;

relaxationNames     ( inlet outlet );

initializationName  inlet;

inletCoeffs
{
    waveType            irregular;
    spectrum            JONSWAP;
    N                   100;
    Tsoft               2;
    Hs                  0.04;
    Tp                  1.2;
    gamma               3.3;
    depth               1.5;
    direction           ( 1 0 0 );
    spectramValues  nonuniform List<scalar> 
101
(
1.53955e-68
3.48197e-49
1.90625e-36
8.43819e-28
8.90402e-22
1.73771e-17
2.26285e-14
4.49779e-12
2.3597e-10
4.73471e-09
4.69501e-08
2.75583e-07
1.08951e-06
3.18657e-06
7.38842e-06
1.43e-05
2.40281e-05
3.61526e-05
5.00201e-05
6.53618e-05
8.31808e-05
0.000106703
0.000141894
0.000195991
0.00026981
0.000342361
0.000370899
0.000346539
0.000292508
0.000231684
0.000179979
0.000142201
0.000116636
9.9756e-05
8.83981e-05
8.02986e-05
7.40178e-05
6.87274e-05
6.39989e-05
5.96358e-05
5.55577e-05
5.17346e-05
4.81541e-05
4.48079e-05
4.16875e-05
3.87831e-05
3.60839e-05
3.35785e-05
3.12551e-05
2.91021e-05
2.71077e-05
2.52611e-05
2.35514e-05
2.19687e-05
2.05034e-05
1.91465e-05
1.78898e-05
1.67256e-05
1.56466e-05
1.46462e-05
1.37183e-05
1.28572e-05
1.20578e-05
1.13151e-05
1.06248e-05
9.98287e-06
9.38554e-06
8.82941e-06
8.31131e-06
7.82837e-06
7.37792e-06
6.95752e-06
6.56494e-06
6.19812e-06
5.85515e-06
5.53429e-06
5.23394e-06
4.95261e-06
4.68896e-06
4.44172e-06
4.20974e-06
3.99195e-06
3.78737e-06
3.59509e-06
3.41426e-06
3.24412e-06
3.08394e-06
2.93305e-06
2.79086e-06
2.65677e-06
2.53028e-06
2.41088e-06
2.29811e-06
2.19157e-06
2.09086e-06
1.9956e-06
1.90547e-06
1.82015e-06
1.73934e-06
1.66277e-06
1.59018e-06
)
;

    fspectrum       nonuniform List<scalar> 
101
(
0.25
0.2725
0.295
0.3175
0.34
0.3625
0.385
0.4075
0.43
0.4525
0.475
0.4975
0.52
0.5425
0.565
0.5875
0.61
0.6325
0.655
0.6775
0.7
0.7225
0.745
0.7675
0.79
0.8125
0.835
0.8575
0.88
0.9025
0.925
0.9475
0.97
0.9925
1.015
1.0375
1.06
1.0825
1.105
1.1275
1.15
1.1725
1.195
1.2175
1.24
1.2625
1.285
1.3075
1.33
1.3525
1.375
1.3975
1.42
1.4425
1.465
1.4875
1.51
1.5325
1.555
1.5775
1.6
1.6225
1.645
1.6675
1.69
1.7125
1.735
1.7575
1.78
1.8025
1.825
1.8475
1.87
1.8925
1.915
1.9375
1.96
1.9825
2.005
2.0275
2.05
2.0725
2.095
2.1175
2.14
2.1625
2.185
2.2075
2.23
2.2525
2.275
2.2975
2.32
2.3425
2.365
2.3875
2.41
2.4325
2.455
2.4775
2.5
)
;

    amplitude           nonuniform List<scalar>
    100
    (
        8.85123e-26
        2.071e-19
        4.35728e-15
        4.47594e-12
        6.25305e-10
        2.25728e-08
        3.18919e-07
        2.32605e-06
        1.05755e-05
        3.41014e-05
        8.5188e-05
        0.000175256
        0.00031018
        0.000487788
        0.000698562
        0.000928646
        0.00116364
        0.00139244
        0.00161124
        0.00182817
        0.00206697
        0.00236504
        0.00275725
        0.00323737
        0.00371131
        0.00400604
        0.00401775
        0.00379191
        0.00343429
        0.00304342
        0.00269241
        0.00241326
        0.00220654
        0.00205754
        0.00194825
        0.00186336
        0.00179214
        0.0017281
        0.00166787
        0.00160992
        0.00155373
        0.00149917
        0.00144625
        0.00139504
        0.00134558
        0.00129789
        0.00125196
        0.00120779
        0.00116535
        0.0011246
        0.00108549
        0.00104799
        0.00101203
        0.000977559
        0.000944522
        0.000912863
        0.000882523
        0.000853449
        0.000825584
        0.000798876
        0.000773272
        0.000748724
        0.000725182
        0.000702601
        0.000680935
        0.000660143
        0.000640185
        0.00062102
        0.000602613
        0.000584928
        0.000567933
        0.000551594
        0.000535881
        0.000520767
        0.000506224
        0.000492225
        0.000478746
        0.000465763
        0.000453255
        0.000441201
        0.000429579
        0.000418372
        0.00040756
        0.000397128
        0.000387057
        0.000377334
        0.000367943
        0.00035887
        0.000350102
        0.000341626
        0.000333431
        0.000325503
        0.000317833
        0.00031041
        0.000303225
        0.000296267
        0.000289528
        0.000282999
        0.000276672
        0.000270539
    );
    frequency           nonuniform List<scalar>
    100
    (
        0.26125
        0.28375
        0.30625
        0.32875
        0.35125
        0.37375
        0.39625
        0.41875
        0.44125
        0.46375
        0.48625
        0.50875
        0.53125
        0.55375
        0.57625
        0.59875
        0.62125
        0.64375
        0.66625
        0.68875
        0.71125
        0.73375
        0.75625
        0.77875
        0.80125
        0.82375
        0.84625
        0.86875
        0.89125
        0.91375
        0.93625
        0.95875
        0.98125
        1.00375
        1.02625
        1.04875
        1.07125
        1.09375
        1.11625
        1.13875
        1.16125
        1.18375
        1.20625
        1.22875
        1.25125
        1.27375
        1.29625
        1.31875
        1.34125
        1.36375
        1.38625
        1.40875
        1.43125
        1.45375
        1.47625
        1.49875
        1.52125
        1.54375
        1.56625
        1.58875
        1.61125
        1.63375
        1.65625
        1.67875
        1.70125
        1.72375
        1.74625
        1.76875
        1.79125
        1.81375
        1.83625
        1.85875
        1.88125
        1.90375
        1.92625
        1.94875
        1.97125
        1.99375
        2.01625
        2.03875
        2.06125
        2.08375
        2.10625
        2.12875
        2.15125
        2.17375
        2.19625
        2.21875
        2.24125
        2.26375
        2.28625
        2.30875
        2.33125
        2.35375
        2.37625
        2.39875
        2.42125
        2.44375
        2.46625
        2.48875
    );
    phaselag            nonuniform List<scalar>
    100
    (
        5.71302
        0.190828
        5.91211
        2.02759
        3.28298
        1.68266
        4.54401
        1.16033
        3.93201
        4.40686
        1.21315
        5.24074
        3.03398
        1.66778
        3.60654
        5.5893
        0.0813837
        1.3993
        0.0767431
        5.6402
        3.09589
        2.22987
        0.0543151
        4.78851
        1.68507
        0.583071
        4.07473
        1.30727
        3.04577
        1.20807
        3.43405
        2.4756
        1.3989
        3.06297
        4.50319
        4.68188
        4.74563
        2.76402
        5.84221
        2.39445
        0.887691
        0.77217
        1.35201
        3.92167
        2.43995
        4.95854
        3.22778
        2.52133
        0.074657
        3.30453
        1.87834
        3.17054
        5.53439
        1.93266
        1.67587
        0.936275
        2.51573
        5.7506
        2.24354
        5.5615
        0.675484
        5.67759
        1.75391
        2.07438
        2.45738
        6.2571
        0.473071
        0.919823
        2.73793
        0.0320942
        3.31427
        3.62562
        0.804264
        4.66628
        1.26411
        3.24421
        3.34164
        4.49189
        5.76554
        3.4163
        1.51324
        1.3607
        0.303657
        0.764442
        3.29336
        1.97953
        1.70072
        5.80909
        1.44694
        3.94426
        5.0874
        2.12243
        3.33867
        0.55813
        4.19681
        5.79605
        0.532047
        4.66988
        0.432688
        3.26998
    );
    waveNumber          nonuniform List<vector>
    100
    (
        (0.459609 0 0)
        (0.505932 0 0)
        (0.554137 0 0)
        (0.60446 0 0)
        (0.657155 0 0)
        (0.712497 0 0)
        (0.770777 0 0)
        (0.832303 0 0)
        (0.897393 0 0)
        (0.966368 0 0)
        (1.03954 0 0)
        (1.11721 0 0)
        (1.19965 0 0)
        (1.28706 0 0)
        (1.37962 0 0)
        (1.47743 0 0)
        (1.58053 0 0)
        (1.68889 0 0)
        (1.80244 0 0)
        (1.92107 0 0)
        (2.04465 0 0)
        (2.17304 0 0)
        (2.30611 0 0)
        (2.44374 0 0)
        (2.58582 0 0)
        (2.73225 0 0)
        (2.88297 0 0)
        (3.03792 0 0)
        (3.19705 0 0)
        (3.36033 0 0)
        (3.52774 0 0)
        (3.69926 0 0)
        (3.87488 0 0)
        (4.05458 0 0)
        (4.23838 0 0)
        (4.42625 0 0)
        (4.61821 0 0)
        (4.81424 0 0)
        (5.01434 0 0)
        (5.21852 0 0)
        (5.42678 0 0)
        (5.63911 0 0)
        (5.85552 0 0)
        (6.076 0 0)
        (6.30056 0 0)
        (6.52919 0 0)
        (6.76189 0 0)
        (6.99867 0 0)
        (7.23953 0 0)
        (7.48446 0 0)
        (7.73346 0 0)
        (7.98654 0 0)
        (8.24369 0 0)
        (8.50492 0 0)
        (8.77022 0 0)
        (9.0396 0 0)
        (9.31305 0 0)
        (9.59058 0 0)
        (9.87218 0 0)
        (10.1579 0 0)
        (10.4476 0 0)
        (10.7414 0 0)
        (11.0393 0 0)
        (11.3413 0 0)
        (11.6473 0 0)
        (11.9575 0 0)
        (12.2717 0 0)
        (12.5899 0 0)
        (12.9123 0 0)
        (13.2387 0 0)
        (13.5692 0 0)
        (13.9038 0 0)
        (14.2424 0 0)
        (14.5851 0 0)
        (14.9319 0 0)
        (15.2828 0 0)
        (15.6377 0 0)
        (15.9968 0 0)
        (16.3599 0 0)
        (16.727 0 0)
        (17.0983 0 0)
        (17.4736 0 0)
        (17.853 0 0)
        (18.2364 0 0)
        (18.624 0 0)
        (19.0156 0 0)
        (19.4113 0 0)
        (19.811 0 0)
        (20.2149 0 0)
        (20.6228 0 0)
        (21.0348 0 0)
        (21.4509 0 0)
        (21.871 0 0)
        (22.2952 0 0)
        (22.7235 0 0)
        (23.1558 0 0)
        (23.5923 0 0)
        (24.0328 0 0)
        (24.4774 0 0)
        (24.926 0 0)
    );

    frequencyAxis
    {
        writeSpectrum       true;
        discretisation      equidistantFrequencyAxis;
        lowerFrequencyCutoff 0.25;
        upperFrequencyCutoff 2.5;
    }

    relaxationZone
    {
        relaxationScheme    Spatial;
        relaxationShape     Rectangular;
        beachType           Empty;
        relaxType           INLET;
        startX              ( 0 -0 0 );
        endX                ( 6 0.1 0 );
        orientation         ( 1 0 0 );
    }
}

outletCoeffs
{
    waveType            potentialCurrent;
    U                   ( 0 0 0 );
    Tsoft               2;

    relaxationZone
    {
        relaxationScheme    Spatial;
        relaxationShape     Rectangular;
        beachType           Empty;
        relaxType           OUTLET;
        startX              ( 18 -0 0 );
        endX                ( 24 0.1 0 );
        orientation         ( 1 0 0 );
    }
}



// ************************************************************************* //
