/*--------------------------------*- C++ -*----------------------------------*\
| =========                 |                                                 |
| \\      /  F ield         | OpenFOAM: The Open Source CFD Toolbox           |
|  \\    /   O peration     | Version:  v1706                                 |
|   \\  /    A nd           | Web:      www.OpenFOAM.com                      |
|    \\/     M anipulation  |                                                 |
\*---------------------------------------------------------------------------*/
FoamFile
{
    version	2.0;
    format	ascii;
    class	dictionary;
    object	waveProperties;
}
// * * * * * * * * * * * * * * * * * * * * * * * * * * * * * * * * * * * * * //

seaLevel            5;

seaLevelAsReference false;

relaxationNames     ( inlet outlet );

initializationName  inlet;

inletCoeffs
{
    waveType            irregular;
    spectrum            JONSWAP;
    N                   151;
    Tsoft               3;
    Hs                  1;
    Tp                  1.5;
    gamma               2.5;
    depth               5;
    direction           ( 1 0 0 );
    amplitude           nonuniform List<scalar>
    151
    (
        0.000115114
        0.000442638
        0.00126636
        0.00289886
        0.00558875
        0.00941966
        0.0142754
        0.0198781
        0.0258685
        0.0318955
        0.0376983
        0.04319
        0.0485397
        0.0542167
        0.0608938
        0.0690746
        0.0784002
        0.0870254
        0.0920441
        0.0919937
        0.0878123
        0.0812249
        0.073871
        0.0670381
        0.0613735
        0.05698
        0.0536543
        0.0510943
        0.049022
        0.0472322
        0.0455965
        0.044046
        0.0425494
        0.0410952
        0.0396811
        0.0383082
        0.0369779
        0.0356914
        0.0344494
        0.0332522
        0.0320994
        0.0309906
        0.0299249
        0.0289012
        0.0279184
        0.0269753
        0.0260704
        0.0252024
        0.0243699
        0.0235714
        0.0228057
        0.0220712
        0.0213667
        0.0206909
        0.0200424
        0.0194202
        0.0188229
        0.0182495
        0.0176989
        0.0171701
        0.016662
        0.0161737
        0.0157044
        0.015253
        0.0148189
        0.0144013
        0.0139993
        0.0136124
        0.0132398
        0.0128808
        0.0125349
        0.0122016
        0.0118801
        0.0115702
        0.0112711
        0.0109825
        0.0107039
        0.0104349
        0.0101751
        0.00992402
        0.0096814
        0.00944686
        0.00922006
        0.00900069
        0.00878843
        0.00858302
        0.00838416
        0.0081916
        0.0080051
        0.00782441
        0.0076493
        0.00747957
        0.007315
        0.0071554
        0.00700058
        0.00685037
        0.00670458
        0.00656305
        0.00642564
        0.00629218
        0.00616253
        0.00603657
        0.00591415
        0.00579515
        0.00567945
        0.00556693
        0.00545749
        0.00535102
        0.00524741
        0.00514657
        0.00504841
        0.00495283
        0.00485975
        0.00476909
        0.00468076
        0.0045947
        0.00451082
        0.00442906
        0.00434935
        0.00427163
        0.00419582
        0.00412188
        0.00404974
        0.00397935
        0.00391065
        0.0038436
        0.00377814
        0.00371422
        0.0036518
        0.00359083
        0.00353128
        0.00347309
        0.00341623
        0.00336067
        0.00330635
        0.00325325
        0.00320134
        0.00315057
        0.00310093
        0.00305236
        0.00300486
        0.00295837
        0.00291289
        0.00286838
        0.00282481
        0.00278216
        0.0027404
        0.00269951
        0.00265948
        0.00262026
        0.00258185
    );
    frequency           nonuniform List<scalar>
    151
    (
        0.34213
        0.35979
        0.377451
        0.395111
        0.412771
        0.430431
        0.448092
        0.465752
        0.483412
        0.501073
        0.518733
        0.536393
        0.554053
        0.571714
        0.589374
        0.607034
        0.624694
        0.642355
        0.660015
        0.677675
        0.695335
        0.712996
        0.730656
        0.748316
        0.765976
        0.783637
        0.801297
        0.818957
        0.836618
        0.854278
        0.871938
        0.889598
        0.907259
        0.924919
        0.942579
        0.960239
        0.9779
        0.99556
        1.01322
        1.03088
        1.04854
        1.0662
        1.08386
        1.10152
        1.11918
        1.13684
        1.1545
        1.17216
        1.18982
        1.20748
        1.22514
        1.2428
        1.26046
        1.27812
        1.29578
        1.31344
        1.3311
        1.34877
        1.36643
        1.38409
        1.40175
        1.41941
        1.43707
        1.45473
        1.47239
        1.49005
        1.50771
        1.52537
        1.54303
        1.56069
        1.57835
        1.59601
        1.61367
        1.63133
        1.64899
        1.66665
        1.68431
        1.70197
        1.71963
        1.73729
        1.75495
        1.77261
        1.79027
        1.80793
        1.82559
        1.84325
        1.86091
        1.87857
        1.89623
        1.91389
        1.93155
        1.94921
        1.96687
        1.98453
        2.0022
        2.01986
        2.03752
        2.05518
        2.07284
        2.0905
        2.10816
        2.12582
        2.14348
        2.16114
        2.1788
        2.19646
        2.21412
        2.23178
        2.24944
        2.2671
        2.28476
        2.30242
        2.32008
        2.33774
        2.3554
        2.37306
        2.39072
        2.40838
        2.42604
        2.4437
        2.46136
        2.47902
        2.49668
        2.51434
        2.532
        2.54966
        2.56732
        2.58498
        2.60264
        2.6203
        2.63796
        2.65562
        2.67329
        2.69095
        2.70861
        2.72627
        2.74393
        2.76159
        2.77925
        2.79691
        2.81457
        2.83223
        2.84989
        2.86755
        2.88521
        2.90287
        2.92053
        2.93819
        2.95585
        2.97351
        2.99117
    );
    phaselag            nonuniform List<scalar>
    151
    (
        5.59706
        3.01333
        6.24519
        1.36119
        1.71372
        5.47686
        5.20778
        5.04909
        1.22036
        0.826611
        2.07943
        5.70597
        3.59989
        2.37344
        1.87632
        2.70637
        5.88104
        3.30448
        2.1332
        1.44453
        5.39291
        4.18874
        1.05652
        1.10455
        3.40158
        4.19853
        1.73677
        0.149798
        1.6815
        2.04099
        1.54097
        0.99538
        5.05432
        1.50298
        2.35657
        0.484853
        0.696649
        1.28116
        5.53395
        1.91701
        2.10777
        1.33019
        1.33979
        5.70766
        3.70363
        3.21611
        2.13085
        3.30149
        0.237403
        4.26405
        4.74601
        5.63031
        2.16961
        5.80254
        0.451672
        5.57119
        3.71788
        2.18844
        5.72099
        5.39938
        4.22942
        0.978775
        0.111575
        3.00056
        2.48175
        2.46815
        3.48541
        3.1784
        3.74931
        2.73617
        5.09541
        5.85708
        4.06636
        0.152013
        5.28156
        1.48681
        3.36812
        1.12923
        4.7883
        3.60553
        5.39328
        3.25112
        2.95265
        1.2797
        2.77047
        3.40432
        0.567711
        0.205167
        5.59276
        0.00551652
        5.60455
        3.539
        0.984291
        5.71612
        0.256373
        3.46604
        1.90108
        3.74178
        0.361258
        5.65039
        0.194768
        5.45666
        5.22429
        4.26113
        5.60868
        4.22267
        5.74794
        2.69362
        5.3519
        4.25305
        0.0159577
        4.46199
        1.22099
        2.96861
        5.7417
        3.99146
        0.0897465
        0.0262231
        4.19663
        5.68251
        0.0317397
        3.51799
        2.93833
        1.01603
        2.95093
        3.1947
        4.48207
        4.85201
        0.653297
        4.84333
        4.21922
        0.848065
        4.01681
        3.16033
        5.1092
        3.3423
        1.09981
        4.57395
        6.03592
        0.168524
        2.54382
        6.05188
        4.63052
        3.7648
        2.7373
        4.08903
        1.47308
        2.82705
        4.11525
        5.66971
        2.22637
    );
    waveNumber          nonuniform List<vector>
    151
    (
        (0.478957 0 0)
        (0.526364 0 0)
        (0.57693 0 0)
        (0.630544 0 0)
        (0.687085 0 0)
        (0.746443 0 0)
        (0.808523 0 0)
        (0.873253 0 0)
        (0.940584 0 0)
        (1.01048 0 0)
        (1.08292 0 0)
        (1.15788 0 0)
        (1.23537 0 0)
        (1.31537 0 0)
        (1.39789 0 0)
        (1.48292 0 0)
        (1.57046 0 0)
        (1.66051 0 0)
        (1.75307 0 0)
        (1.84814 0 0)
        (1.94572 0 0)
        (2.04581 0 0)
        (2.14841 0 0)
        (2.25352 0 0)
        (2.36114 0 0)
        (2.47127 0 0)
        (2.58391 0 0)
        (2.69906 0 0)
        (2.81673 0 0)
        (2.9369 0 0)
        (3.05958 0 0)
        (3.18477 0 0)
        (3.31248 0 0)
        (3.44269 0 0)
        (3.57541 0 0)
        (3.71065 0 0)
        (3.84839 0 0)
        (3.98865 0 0)
        (4.13141 0 0)
        (4.27669 0 0)
        (4.42447 0 0)
        (4.57477 0 0)
        (4.72757 0 0)
        (4.88289 0 0)
        (5.04071 0 0)
        (5.20105 0 0)
        (5.3639 0 0)
        (5.52925 0 0)
        (5.69712 0 0)
        (5.8675 0 0)
        (6.04038 0 0)
        (6.21578 0 0)
        (6.39369 0 0)
        (6.57411 0 0)
        (6.75704 0 0)
        (6.94247 0 0)
        (7.13042 0 0)
        (7.32088 0 0)
        (7.51385 0 0)
        (7.70933 0 0)
        (7.90732 0 0)
        (8.10782 0 0)
        (8.31083 0 0)
        (8.51635 0 0)
        (8.72438 0 0)
        (8.93492 0 0)
        (9.14798 0 0)
        (9.36354 0 0)
        (9.58161 0 0)
        (9.80219 0 0)
        (10.0253 0 0)
        (10.2509 0 0)
        (10.479 0 0)
        (10.7096 0 0)
        (10.9428 0 0)
        (11.1784 0 0)
        (11.4166 0 0)
        (11.6572 0 0)
        (11.9004 0 0)
        (12.1461 0 0)
        (12.3943 0 0)
        (12.645 0 0)
        (12.8982 0 0)
        (13.1539 0 0)
        (13.4121 0 0)
        (13.6729 0 0)
        (13.9362 0 0)
        (14.2019 0 0)
        (14.4702 0 0)
        (14.741 0 0)
        (15.0143 0 0)
        (15.2901 0 0)
        (15.5684 0 0)
        (15.8492 0 0)
        (16.1326 0 0)
        (16.4184 0 0)
        (16.7068 0 0)
        (16.9976 0 0)
        (17.291 0 0)
        (17.5869 0 0)
        (17.8853 0 0)
        (18.1862 0 0)
        (18.4896 0 0)
        (18.7956 0 0)
        (19.104 0 0)
        (19.415 0 0)
        (19.7284 0 0)
        (20.0444 0 0)
        (20.3629 0 0)
        (20.6839 0 0)
        (21.0074 0 0)
        (21.3334 0 0)
        (21.6619 0 0)
        (21.9929 0 0)
        (22.3265 0 0)
        (22.6625 0 0)
        (23.0011 0 0)
        (23.3422 0 0)
        (23.6858 0 0)
        (24.0318 0 0)
        (24.3804 0 0)
        (24.7316 0 0)
        (25.0852 0 0)
        (25.4413 0 0)
        (25.8 0 0)
        (26.1611 0 0)
        (26.5248 0 0)
        (26.891 0 0)
        (27.2597 0 0)
        (27.6308 0 0)
        (28.0046 0 0)
        (28.3808 0 0)
        (28.7595 0 0)
        (29.1407 0 0)
        (29.5245 0 0)
        (29.9107 0 0)
        (30.2995 0 0)
        (30.6908 0 0)
        (31.0846 0 0)
        (31.4809 0 0)
        (31.8797 0 0)
        (32.281 0 0)
        (32.6848 0 0)
        (33.0912 0 0)
        (33.5 0 0)
        (33.9114 0 0)
        (34.3253 0 0)
        (34.7416 0 0)
        (35.1605 0 0)
        (35.5819 0 0)
        (36.0058 0 0)
    );

    frequencyAxis
    {
        writeSpectrum       false;
        discretisation      equidistantFrequencyAxis;
        lowerFrequencyCutoff 0.3333;
        upperFrequencyCutoff 3;
    }

    relaxationZone
    {
        relaxationScheme    Spatial;
        relaxationShape     Rectangular;
        beachType           Empty;
        relaxType           INLET;
        startX              ( 0 -0 0 );
        endX                ( 50 0.1 0 );
        orientation         ( 1 0 0 );
    }
}

outletCoeffs
{
    waveType            potentialCurrent;
    U                   ( 0 0 0 );
    Tsoft               2;

    relaxationZone
    {
        relaxationScheme    Spatial;
        relaxationShape     Rectangular;
        beachType           Empty;
        relaxType           OUTLET;
        startX              ( 200 -0 0 );
        endX                ( 300 0.1 0 );
        orientation         ( 1 0 0 );
    }
}



// ************************************************************************* //
